src/test/resources/german/mergeFakeFile.uct
##C 2007.05.01
##N
##ZDE
D2XXXX11              0 0        3.96708 0.00000 0.00000 0.00000
D4XXXX11              0 0        3.96708 0.00000 0.00000 0.00000
##ZXX
XXXXXX11              1 0        3.96708 0.00000
XYYYYY11              1 0        3.96708 0.00000
##L
D2XXXX11 XXXXXX11 1 9 0.0000 0.2000 0.000000   5051 ELEMENT1
D4XXXX11 XXXXXX11 1 9 0.0000 0.2000 0.000000   5051 ELEMENT2
D2XXXX11 XYYYYY11 1 9 0.0000 0.2000 0.000000   5051
##T
##R
